<configuration>
    <input>
        <net-file value="network_fixed.net.xml"/>
        <route-files value="traffic.rou.xml"/>
    </input>
    <time>
        <begin value="0"/>
        <end value="500"/>
    </time>
    <report>
        <collision-output value="collisions.xml"/>
    </report>
</configuration>
