<routes>
    <!-- Define a custom vehicle type with collision avoidance -->
    <vType id="custom_vehicle" accel="2.6" decel="4.5" length="5" maxSpeed="30" 
           guiShape="passenger" imgFile="C:/Users/User/Sumo/car.png"
           minGap="3" sigma="0.5" carFollowModel="Krauss"/>
    
    <route id="route1" edges="road1 road2 road3 road4"/>

    <!-- Three cars with a safe following distance -->
    <vehicle id="car1" type="custom_vehicle" route="route1" depart="0"/>
    <vehicle id="car2" type="custom_vehicle" route="route1" depart="10"/>
    <vehicle id="car3" type="custom_vehicle" route="route1" depart="20"/>
</routes>
