<configuration><input><net-file value="LargeBasicChelt.net.xml" /><route-files value="C:\Users\mathm\Github\IntelliLightEngineers\generated\Chelt100k.trips.xml" /></input><time><begin value="0" /><end value="100000" /></time><report><collision-output value="collisions.xml" /></report></configuration>