<configuration><input><net-file value="Cheltenhambasic.net.xml" /><route-files value="C:\Github\IntelliLightEngineers\generated\cheltbasic.trips.xml" /></input><time><begin value="0" /><end value="10000" /></time><report><collision-output value="collisions.xml" /></report></configuration>