<?xml version="1.0" encoding="UTF-8"?>

<!-- generated on 2025-05-10 15:37:04 by Eclipse SUMO netedit Version 1.22.0
<neteditConfiguration xmlns:xsi="http://www.w3.org/2001/XMLSchema-instance" xsi:noNamespaceSchemaLocation="http://sumo.dlr.de/xsd/neteditConfiguration.xsd">

    <input>
        <sumo-net-file value="swindonroad.net.xml"/>
    </input>

    <output>
        <output-file value="swindonroad.net.xml"/>
    </output>

    <processing>
        <geometry.min-radius.fix.railways value="false"/>
        <geometry.max-grade.fix value="false"/>
        <offset.disable-normalization value="true"/>
        <lefthand value="1"/>
    </processing>

    <junctions>
        <no-turnarounds value="true"/>
        <junctions.corner-detail value="5"/>
        <junctions.limit-turn-speed value="5.50"/>
        <rectangular-lane-cut value="0"/>
    </junctions>

    <pedestrian>
        <walkingareas value="0"/>
    </pedestrian>

</neteditConfiguration>
-->

<net version="1.20" junctionCornerDetail="5" lefthand="true" limitTurnSpeed="5.50" xmlns:xsi="http://www.w3.org/2001/XMLSchema-instance" xsi:noNamespaceSchemaLocation="http://sumo.dlr.de/xsd/net_file.xsd">

    <location netOffset="-562735.86,-5750439.31" convBoundary="-2.79,0.00,1168.26,866.09" origBoundary="-2.089518,51.900563,-2.071109,51.908870" projParameter="+proj=utm +zone=30 +ellps=WGS84 +datum=WGS84 +units=m +no_defs"/>

    <type id="highway.cycleway" priority="1" numLanes="1" speed="5.56" allow="bicycle" oneway="0" width="2.00"/>
    <type id="highway.footway" priority="1" numLanes="1" speed="2.78" allow="pedestrian" oneway="1" width="2.00"/>
    <type id="highway.path" priority="1" numLanes="1" speed="5.56" allow="pedestrian bicycle" oneway="0" width="2.00"/>
    <type id="highway.pedestrian" priority="1" numLanes="1" speed="2.78" allow="pedestrian" oneway="1" width="2.00"/>
    <type id="highway.primary" priority="12" numLanes="2" speed="27.78" disallow="tram rail_urban rail rail_electric rail_fast ship container cable_car subway aircraft wheelchair scooter drone" oneway="0"/>
    <type id="highway.primary_link" priority="7" numLanes="1" speed="22.22" disallow="tram rail_urban rail rail_electric rail_fast ship container cable_car subway aircraft wheelchair scooter drone" oneway="0"/>
    <type id="highway.residential" priority="3" numLanes="1" speed="13.89" disallow="tram rail_urban rail rail_electric rail_fast ship container cable_car subway aircraft wheelchair scooter drone" oneway="0"/>
    <type id="highway.secondary" priority="11" numLanes="1" speed="27.78" disallow="tram rail_urban rail rail_electric rail_fast ship container cable_car subway aircraft wheelchair scooter drone" oneway="0"/>
    <type id="highway.service" priority="1" numLanes="1" speed="5.56" allow="pedestrian delivery bicycle" oneway="0"/>
    <type id="highway.steps" priority="1" numLanes="1" speed="1.39" allow="pedestrian" oneway="1" width="2.00"/>
    <type id="highway.tertiary" priority="10" numLanes="1" speed="22.22" disallow="tram rail_urban rail rail_electric rail_fast ship container cable_car subway aircraft wheelchair scooter drone" oneway="0"/>
    <type id="highway.tertiary_link" priority="5" numLanes="1" speed="22.22" disallow="tram rail_urban rail rail_electric rail_fast ship container cable_car subway aircraft wheelchair scooter drone" oneway="0"/>
    <type id="highway.trunk" priority="13" numLanes="2" speed="27.78" disallow="pedestrian bicycle tram rail_urban rail rail_electric rail_fast ship container cable_car subway aircraft wheelchair scooter drone" oneway="0"/>
    <type id="highway.unclassified" priority="4" numLanes="1" speed="13.89" disallow="tram rail_urban rail rail_electric rail_fast ship container cable_car subway aircraft wheelchair scooter drone" oneway="0"/>

    <edge id=":11045442627_0" function="internal">
        <lane id=":11045442627_0_0" index="0" disallow="pedestrian bicycle tram rail_urban rail rail_electric rail_fast ship container cable_car subway aircraft wheelchair scooter drone" speed="27.78" length="0.31" shape="1040.86,161.35 1040.60,161.51"/>
        <lane id=":11045442627_0_1" index="1" disallow="pedestrian bicycle tram rail_urban rail rail_electric rail_fast ship container cable_car subway aircraft wheelchair scooter drone" speed="27.78" length="0.31" shape="1042.57,164.06 1042.31,164.22"/>
    </edge>
    <edge id=":11045442627_2" function="internal">
        <lane id=":11045442627_2_0" index="0" disallow="pedestrian bicycle tram rail_urban rail rail_electric rail_fast ship container cable_car subway aircraft wheelchair scooter drone" speed="27.78" length="7.73" shape="1046.00,169.46 1045.97,169.47"/>
        <lane id=":11045442627_2_1" index="1" disallow="pedestrian bicycle tram rail_urban rail rail_electric rail_fast ship container cable_car subway aircraft wheelchair scooter drone" speed="27.78" length="7.73" shape="1031.59,175.52 1035.19,172.70 1037.74,170.87 1040.38,169.18 1044.27,166.76"/>
    </edge>
    <edge id=":11401500643_0" function="internal">
        <lane id=":11401500643_0_0" index="0" allow="pedestrian delivery bicycle" speed="3.65" length="4.67" shape="813.83,495.96 814.63,494.76 814.70,493.87 814.02,493.28 812.61,493.00"/>
    </edge>
    <edge id=":11401500644_0" function="internal">
        <lane id=":11401500644_0_0" index="0" allow="pedestrian delivery bicycle" speed="3.90" length="2.61" shape="780.93,506.05 780.24,506.23 779.65,506.14 779.19,505.78 778.83,505.15"/>
    </edge>
    <edge id=":11401500644_1" function="internal">
        <lane id=":11401500644_1_0" index="0" allow="pedestrian delivery bicycle" speed="5.56" length="7.84" shape="775.85,506.32 776.91,508.20 778.32,509.27 780.06,509.54 782.15,509.01"/>
    </edge>
    <edge id=":11841424283_0" function="internal">
        <lane id=":11841424283_0_0" index="0" disallow="tram rail_urban rail rail_electric rail_fast ship container cable_car subway aircraft wheelchair scooter drone" speed="3.65" length="4.67" shape="625.57,672.69 626.70,673.59 627.58,673.72 628.22,673.10 628.61,671.71"/>
    </edge>
    <edge id=":11841440844_0" function="internal">
        <lane id=":11841440844_0_0" index="0" disallow="tram rail_urban rail rail_electric rail_fast ship container cable_car subway aircraft wheelchair scooter drone" speed="13.89" length="0.10" shape="676.41,651.64 676.41,651.64"/>
    </edge>
    <edge id=":11841440844_1" function="internal">
        <lane id=":11841440844_1_0" index="0" disallow="tram rail_urban rail rail_electric rail_fast ship container cable_car subway aircraft wheelchair scooter drone" speed="13.89" length="0.10" shape="673.37,652.64 673.37,652.64"/>
    </edge>
    <edge id=":11842178696_0" function="internal">
        <lane id=":11842178696_0_0" index="0" allow="pedestrian delivery bicycle" speed="3.65" length="4.67" shape="677.56,89.26 678.14,87.94 678.05,87.05 677.28,86.59 675.84,86.56"/>
    </edge>
    <edge id=":12109424354_0" function="internal">
        <lane id=":12109424354_0_0" index="0" disallow="tram rail_urban rail rail_electric rail_fast ship container cable_car subway aircraft wheelchair scooter drone" speed="13.89" length="10.13" shape="550.06,193.84 540.01,192.58"/>
    </edge>
    <edge id=":12109424354_1" function="internal">
        <lane id=":12109424354_1_0" index="0" allow="pedestrian delivery bicycle" speed="6.70" length="3.56" shape="550.06,193.84 546.51,194.10"/>
    </edge>
    <edge id=":12109424354_7" function="internal">
        <lane id=":12109424354_7_0" index="0" allow="pedestrian delivery bicycle" speed="6.70" length="8.94" shape="546.51,194.10 546.33,194.12 544.07,195.47 543.27,197.90 543.93,201.40"/>
    </edge>
    <edge id=":12109424354_2" function="internal">
        <lane id=":12109424354_2_0" index="0" allow="pedestrian delivery bicycle" speed="4.70" length="5.69" shape="546.96,200.36 546.63,198.70 546.97,197.60 547.98,197.03 549.67,197.01"/>
    </edge>
    <edge id=":12109424354_3" function="internal">
        <lane id=":12109424354_3_0" index="0" allow="pedestrian delivery bicycle" speed="8.68" length="10.96" shape="546.96,200.36 545.59,197.16 543.97,194.80 542.11,193.27 540.01,192.58"/>
    </edge>
    <edge id=":12109424354_4" function="internal">
        <lane id=":12109424354_4_0" index="0" allow="pedestrian delivery bicycle" speed="3.65" length="4.67" shape="546.96,200.36 545.81,199.48 544.92,199.37 544.30,200.01 543.93,201.40"/>
    </edge>
    <edge id=":12109424354_5" function="internal">
        <lane id=":12109424354_5_0" index="0" allow="pedestrian delivery bicycle" speed="7.24" length="7.42" shape="539.61,195.75 540.81,196.22 541.93,197.32 542.97,199.05 543.93,201.40"/>
    </edge>
    <edge id=":12109424354_6" function="internal">
        <lane id=":12109424354_6_0" index="0" disallow="tram rail_urban rail rail_electric rail_fast ship container cable_car subway aircraft wheelchair scooter drone" speed="13.89" length="10.14" shape="539.61,195.75 549.67,197.01"/>
    </edge>
    <edge id=":12109424357_0" function="internal">
        <lane id=":12109424357_0_0" index="0" allow="pedestrian delivery bicycle" speed="3.65" length="4.67" shape="557.57,218.39 558.42,217.22 558.52,216.34 557.87,215.72 556.47,215.39"/>
    </edge>
    <edge id=":12115924366_0" function="internal">
        <lane id=":12115924366_0_0" index="0" allow="pedestrian delivery bicycle" speed="5.56" length="6.98" shape="633.82,625.26 631.99,626.19 630.84,627.02 629.80,628.00 628.30,629.43"/>
    </edge>
    <edge id=":12115924366_1" function="internal">
        <lane id=":12115924366_1_0" index="0" allow="pedestrian delivery bicycle" speed="3.71" length="1.35" shape="633.82,625.26 633.48,626.56"/>
    </edge>
    <edge id=":12115924366_4" function="internal">
        <lane id=":12115924366_4_0" index="0" allow="pedestrian delivery bicycle" speed="3.71" length="3.54" shape="633.48,626.56 633.44,626.72 633.69,627.62 634.56,627.96 636.06,627.75"/>
    </edge>
    <edge id=":12115924366_2" function="internal">
        <lane id=":12115924366_2_0" index="0" allow="pedestrian delivery bicycle" speed="5.56" length="6.98" shape="630.44,631.81 631.96,630.40 633.03,629.45 634.21,628.67 636.06,627.75"/>
    </edge>
    <edge id=":12115924366_3" function="internal">
        <lane id=":12115924366_3_0" index="0" allow="pedestrian delivery bicycle" speed="3.65" length="1.44" shape="630.44,631.81 630.80,630.41"/>
    </edge>
    <edge id=":12115924366_5" function="internal">
        <lane id=":12115924366_5_0" index="0" allow="pedestrian delivery bicycle" speed="3.65" length="3.23" shape="630.80,630.41 630.56,629.55 629.72,629.22 628.30,629.43"/>
    </edge>
    <edge id=":12115924367_0" function="internal">
        <lane id=":12115924367_0_0" index="0" disallow="tram rail_urban rail rail_electric rail_fast ship container cable_car subway aircraft wheelchair scooter drone" speed="13.89" length="5.00" shape="640.77,642.06 636.24,644.18"/>
    </edge>
    <edge id=":12115924367_1" function="internal">
        <lane id=":12115924367_1_0" index="0" disallow="tram rail_urban rail rail_electric rail_fast ship container cable_car subway aircraft wheelchair scooter drone" speed="13.89" length="5.00" shape="637.60,647.08 642.13,644.96"/>
    </edge>
    <edge id=":12115924425_0" function="internal">
        <lane id=":12115924425_0_0" index="0" allow="pedestrian delivery bicycle" speed="5.56" length="5.00" shape="610.95,631.82 609.02,627.21"/>
    </edge>
    <edge id=":12115924425_1" function="internal">
        <lane id=":12115924425_1_0" index="0" allow="pedestrian delivery bicycle" speed="3.65" length="4.67" shape="610.95,631.82 609.75,631.03 608.86,630.97 608.27,631.64 608.00,633.06"/>
    </edge>
    <edge id=":12115924425_2" function="internal">
        <lane id=":12115924425_2_0" index="0" allow="pedestrian delivery bicycle" speed="5.56" length="5.00" shape="606.07,628.44 608.00,633.06"/>
    </edge>
    <edge id=":12115924425_3" function="internal">
        <lane id=":12115924425_3_0" index="0" allow="pedestrian delivery bicycle" speed="3.65" length="4.67" shape="606.07,628.44 607.27,629.24 608.16,629.30 608.75,628.63 609.02,627.21"/>
    </edge>
    <edge id=":1236565083_0" function="internal">
        <lane id=":1236565083_0_0" index="0" disallow="tram rail_urban rail rail_electric rail_fast ship container cable_car subway aircraft wheelchair scooter drone" speed="13.89" length="14.41" shape="874.29,477.86 867.41,465.20"/>
    </edge>
    <edge id=":1236565083_1" function="internal">
        <lane id=":1236565083_1_0" index="0" disallow="tram rail_urban rail rail_electric rail_fast ship container cable_car subway aircraft wheelchair scooter drone" speed="8.12" length="4.01" shape="874.29,477.86 871.99,474.78 871.84,474.70"/>
    </edge>
    <edge id=":1236565083_2" function="internal">
        <lane id=":1236565083_2_0" index="0" disallow="tram rail_urban rail rail_electric rail_fast ship container cable_car subway aircraft wheelchair scooter drone" speed="3.65" length="1.44" shape="874.29,477.86 873.02,477.18"/>
    </edge>
    <edge id=":1236565083_9" function="internal">
        <lane id=":1236565083_9_0" index="0" disallow="tram rail_urban rail rail_electric rail_fast ship container cable_car subway aircraft wheelchair scooter drone" speed="8.12" length="10.23" shape="871.84,474.70 869.22,473.16 865.97,472.97 862.24,474.23"/>
    </edge>
    <edge id=":1236565083_10" function="internal">
        <lane id=":1236565083_10_0" index="0" disallow="tram rail_urban rail rail_electric rail_fast ship container cable_car subway aircraft wheelchair scooter drone" speed="3.65" length="3.23" shape="873.02,477.18 872.12,477.21 871.61,477.95 871.48,479.38"/>
    </edge>
    <edge id=":1236565083_3" function="internal">
        <lane id=":1236565083_3_0" index="0" disallow="tram rail_urban rail rail_electric rail_fast ship container cable_car subway aircraft wheelchair scooter drone" speed="6.64" length="9.21" shape="863.68,477.09 866.10,476.27 868.21,476.38 870.00,477.41 871.48,479.38"/>
    </edge>
    <edge id=":1236565083_4" function="internal">
        <lane id=":1236565083_4_0" index="0" disallow="tram rail_urban rail rail_electric rail_fast ship container cable_car subway aircraft wheelchair scooter drone" speed="7.94" length="14.33" shape="863.68,477.09 866.92,474.84 868.62,472.11 868.78,468.90 867.41,465.20"/>
    </edge>
    <edge id=":1236565083_5" function="internal">
        <lane id=":1236565083_5_0" index="0" disallow="tram rail_urban rail rail_electric rail_fast ship container cable_car subway aircraft wheelchair scooter drone" speed="3.65" length="4.67" shape="863.68,477.09 864.39,475.84 864.39,474.95 863.67,474.41 862.24,474.23"/>
    </edge>
    <edge id=":1236565083_6" function="internal">
        <lane id=":1236565083_6_0" index="0" disallow="tram rail_urban rail rail_electric rail_fast ship container cable_car subway aircraft wheelchair scooter drone" speed="6.43" length="9.03" shape="864.60,466.73 865.47,469.06 865.36,471.09 864.29,472.81 862.24,474.23"/>
    </edge>
    <edge id=":1236565083_7" function="internal">
        <lane id=":1236565083_7_0" index="0" disallow="tram rail_urban rail rail_electric rail_fast ship container cable_car subway aircraft wheelchair scooter drone" speed="13.89" length="14.40" shape="864.60,466.73 871.48,479.38"/>
    </edge>
    <edge id=":1236565083_8" function="internal">
        <lane id=":1236565083_8_0" index="0" disallow="tram rail_urban rail rail_electric rail_fast ship container cable_car subway aircraft wheelchair scooter drone" speed="3.65" length="1.44" shape="864.60,466.73 865.87,467.40"/>
    </edge>
    <edge id=":1236565083_11" function="internal">
        <lane id=":1236565083_11_0" index="0" disallow="tram rail_urban rail rail_electric rail_fast ship container cable_car subway aircraft wheelchair scooter drone" speed="3.65" length="3.23" shape="865.87,467.40 866.77,467.37 867.28,466.64 867.41,465.20"/>
    </edge>
    <edge id=":1236565088_0" function="internal">
        <lane id=":1236565088_0_0" index="0" disallow="tram rail_urban rail rail_electric rail_fast ship container cable_car subway aircraft wheelchair scooter drone" speed="3.65" length="4.67" shape="864.87,398.00 863.66,397.20 862.77,397.14 862.19,397.82 861.91,399.24"/>
    </edge>
    <edge id=":1236565091_0" function="internal">
        <lane id=":1236565091_0_0" index="0" disallow="tram rail_urban rail rail_electric rail_fast ship container cable_car subway aircraft wheelchair scooter drone" speed="6.68" length="9.19" shape="856.78,432.52 854.36,433.30 852.25,433.17 850.46,432.13 848.97,430.16"/>
    </edge>
    <edge id=":1236565091_1" function="internal">
        <lane id=":1236565091_1_0" index="0" disallow="tram rail_urban rail rail_electric rail_fast ship container cable_car subway aircraft wheelchair scooter drone" speed="7.99" length="14.22" shape="856.78,432.52 853.54,434.70 851.78,437.38 851.51,440.58 852.72,444.29"/>
    </edge>
    <edge id=":1236565091_2" function="internal">
        <lane id=":1236565091_2_0" index="0" disallow="tram rail_urban rail rail_electric rail_fast ship container cable_car subway aircraft wheelchair scooter drone" speed="3.65" length="4.67" shape="856.78,432.52 856.04,433.76 856.03,434.66 856.74,435.20 858.17,435.40"/>
    </edge>
    <edge id=":1236565091_3" function="internal">
        <lane id=":1236565091_3_0" index="0" disallow="tram rail_urban rail rail_electric rail_fast ship container cable_car subway aircraft wheelchair scooter drone" speed="6.49" length="9.03" shape="855.59,442.88 854.82,440.52 854.99,438.49 856.11,436.78 858.17,435.40"/>
    </edge>
    <edge id=":1236565091_4" function="internal">
        <lane id=":1236565091_4_0" index="0" disallow="tram rail_urban rail rail_electric rail_fast ship container cable_car subway aircraft wheelchair scooter drone" speed="13.89" length="14.33" shape="855.59,442.88 848.97,430.16"/>
    </edge>
    <edge id=":1236565091_5" function="internal">
        <lane id=":1236565091_5_0" index="0" disallow="tram rail_urban rail rail_electric rail_fast ship container cable_car subway aircraft wheelchair scooter drone" speed="3.65" length="1.44" shape="855.59,442.88 854.34,442.15"/>
    </edge>
    <edge id=":1236565091_9" function="internal">
        <lane id=":1236565091_9_0" index="0" disallow="tram rail_urban rail rail_electric rail_fast ship container cable_car subway aircraft wheelchair scooter drone" speed="3.65" length="3.23" shape="854.34,442.15 853.45,442.15 852.91,442.86 852.72,444.29"/>
    </edge>
    <edge id=":1236565091_6" function="internal">
        <lane id=":1236565091_6_0" index="0" disallow="tram rail_urban rail rail_electric rail_fast ship container cable_car subway aircraft wheelchair scooter drone" speed="13.89" length="14.19" shape="846.17,431.71 852.72,444.29"/>
    </edge>
    <edge id=":1236565091_7" function="internal">
        <lane id=":1236565091_7_0" index="0" disallow="tram rail_urban rail rail_electric rail_fast ship container cable_car subway aircraft wheelchair scooter drone" speed="8.15" length="3.81" shape="846.17,431.71 848.46,434.75"/>
    </edge>
    <edge id=":1236565091_8" function="internal">
        <lane id=":1236565091_8_0" index="0" disallow="tram rail_urban rail rail_electric rail_fast ship container cable_car subway aircraft wheelchair scooter drone" speed="3.65" length="1.44" shape="846.17,431.71 847.45,432.37"/>
    </edge>
    <edge id=":1236565091_10" function="internal">
        <lane id=":1236565091_10_0" index="0" disallow="tram rail_urban rail rail_electric rail_fast ship container cable_car subway aircraft wheelchair scooter drone" speed="8.15" length="10.34" shape="848.46,434.75 851.23,436.38 854.46,436.60 858.17,435.40"/>
    </edge>
    <edge id=":1236565091_11" function="internal">
        <lane id=":1236565091_11_0" index="0" disallow="tram rail_urban rail rail_electric rail_fast ship container cable_car subway aircraft wheelchair scooter drone" speed="3.65" length="3.23" shape="847.45,432.37 848.34,432.34 848.85,431.60 848.97,430.16"/>
    </edge>
    <edge id=":1236585762_0" function="internal">
        <lane id=":1236585762_0_0" index="0" disallow="tram rail_urban rail rail_electric rail_fast ship container cable_car subway aircraft wheelchair scooter drone" speed="6.45" length="9.03" shape="559.61,680.12 557.24,680.84 555.21,680.62 553.55,679.46 552.24,677.35"/>
    </edge>
    <edge id=":1236585762_1" function="internal">
        <lane id=":1236585762_1_0" index="0" disallow="tram rail_urban rail rail_electric rail_fast ship container cable_car subway aircraft wheelchair scooter drone" speed="13.89" length="14.40" shape="559.61,680.12 546.57,686.23"/>
    </edge>
    <edge id=":1236585762_2" function="internal">
        <lane id=":1236585762_2_0" index="0" disallow="tram rail_urban rail rail_electric rail_fast ship container cable_car subway aircraft wheelchair scooter drone" speed="3.65" length="1.44" shape="559.61,680.12 558.86,681.35"/>
    </edge>
    <edge id=":1236585762_9" function="internal">
        <lane id=":1236585762_9_0" index="0" disallow="tram rail_urban rail rail_electric rail_fast ship container cable_car subway aircraft wheelchair scooter drone" speed="3.65" length="3.23" shape="558.86,681.35 558.84,682.25 559.55,682.80 560.97,683.01"/>
    </edge>
    <edge id=":1236585762_3" function="internal">
        <lane id=":1236585762_3_0" index="0" disallow="tram rail_urban rail rail_electric rail_fast ship container cable_car subway aircraft wheelchair scooter drone" speed="13.89" length="14.41" shape="547.93,689.13 560.97,683.01"/>
    </edge>
    <edge id=":1236585762_4" function="internal">
        <lane id=":1236585762_4_0" index="0" disallow="tram rail_urban rail rail_electric rail_fast ship container cable_car subway aircraft wheelchair scooter drone" speed="8.08" length="4.03" shape="547.93,689.13 551.15,687.01 551.24,686.87"/>
    </edge>
    <edge id=":1236585762_5" function="internal">
        <lane id=":1236585762_5_0" index="0" disallow="tram rail_urban rail rail_electric rail_fast ship container cable_car subway aircraft wheelchair scooter drone" speed="3.65" length="1.44" shape="547.93,689.13 548.68,687.90"/>
    </edge>
    <edge id=":1236585762_10" function="internal">
        <lane id=":1236585762_10_0" index="0" disallow="tram rail_urban rail rail_electric rail_fast ship container cable_car subway aircraft wheelchair scooter drone" speed="8.08" length="10.20" shape="551.24,686.87 552.94,684.34 553.30,681.12 552.24,677.35"/>
    </edge>
    <edge id=":1236585762_11" function="internal">
        <lane id=":1236585762_11_0" index="0" disallow="tram rail_urban rail rail_electric rail_fast ship container cable_car subway aircraft wheelchair scooter drone" speed="3.65" length="3.23" shape="548.68,687.90 548.70,687.00 548.00,686.45 546.57,686.23"/>
    </edge>
    <edge id=":1236585762_6" function="internal">
        <lane id=":1236585762_6_0" index="0" disallow="tram rail_urban rail rail_electric rail_fast ship container cable_car subway aircraft wheelchair scooter drone" speed="6.60" length="9.16" shape="549.31,678.64 550.00,681.07 549.77,683.15 548.63,684.87 546.57,686.23"/>
    </edge>
    <edge id=":1236585762_7" function="internal">
        <lane id=":1236585762_7_0" index="0" disallow="tram rail_urban rail rail_electric rail_fast ship container cable_car subway aircraft wheelchair scooter drone" speed="7.96" length="14.29" shape="549.31,678.64 551.38,681.97 554.02,683.82 557.21,684.16 560.97,683.01"/>
    </edge>
    <edge id=":1236585762_8" function="internal">
        <lane id=":1236585762_8_0" index="0" disallow="tram rail_urban rail rail_electric rail_fast ship container cable_car subway aircraft wheelchair scooter drone" speed="3.65" length="4.67" shape="549.31,678.64 550.52,679.41 551.42,679.46 551.99,678.77 552.24,677.35"/>
    </edge>
    <edge id=":1236585763_0" function="internal">
        <lane id=":1236585763_0_0" index="0" allow="pedestrian delivery bicycle" speed="5.14" length="5.09" shape="573.71,109.93 572.36,110.39 571.19,110.34 570.19,109.77 569.38,108.69"/>
    </edge>
    <edge id=":1236585763_1" function="internal">
        <lane id=":1236585763_1_0" index="0" allow="pedestrian delivery bicycle" speed="6.85" length="10.24" shape="573.71,109.93 571.39,111.53 570.16,113.48 570.01,115.78 570.94,118.43"/>
    </edge>
    <edge id=":1236585763_2" function="internal">
        <lane id=":1236585763_2_0" index="0" allow="pedestrian delivery bicycle" speed="3.65" length="4.67" shape="573.71,109.93 572.99,111.18 572.99,112.07 573.70,112.61 575.14,112.79"/>
    </edge>
    <edge id=":1236585763_3" function="internal">
        <lane id=":1236585763_3_0" index="0" allow="pedestrian delivery bicycle" speed="5.02" length="5.02" shape="573.78,116.96 573.32,115.66 573.40,114.53 574.00,113.58 575.14,112.79"/>
    </edge>
    <edge id=":1236585763_4" function="internal">
        <lane id=":1236585763_4_0" index="0" disallow="tram rail_urban rail rail_electric rail_fast ship container cable_car subway aircraft wheelchair scooter drone" speed="22.22" length="9.37" shape="573.78,116.96 569.38,108.69"/>
    </edge>
    <edge id=":1236585763_5" function="internal">
        <lane id=":1236585763_5_0" index="0" disallow="tram rail_urban rail rail_electric rail_fast ship container cable_car subway aircraft wheelchair scooter drone" speed="22.22" length="9.30" shape="566.57,110.23 570.94,118.43"/>
    </edge>
    <edge id=":1236585763_6" function="internal">
        <lane id=":1236585763_6_0" index="0" allow="pedestrian delivery bicycle" speed="6.94" length="3.14" shape="566.57,110.23 568.21,112.40 568.57,112.61"/>
    </edge>
    <edge id=":1236585763_7" function="internal">
        <lane id=":1236585763_7_0" index="0" allow="pedestrian delivery bicycle" speed="6.94" length="6.97" shape="568.57,112.61 570.18,113.55 572.49,113.68 575.14,112.79"/>
    </edge>
    <edge id=":1236585800_0" function="internal">
        <lane id=":1236585800_0_0" index="0" disallow="tram rail_urban rail rail_electric rail_fast ship container cable_car subway aircraft wheelchair scooter drone" speed="3.65" length="4.67" shape="534.93,126.19 533.72,125.41 532.83,125.36 532.25,126.04 531.99,127.46"/>
    </edge>
    <edge id=":1270258817_0" function="internal">
        <lane id=":1270258817_0_0" index="0" disallow="tram rail_urban rail rail_electric rail_fast ship container cable_car subway aircraft wheelchair scooter drone" speed="13.89" length="4.91" width="6.90" shape="755.81,228.86 753.85,224.36"/>
    </edge>
    <edge id=":1270258818_0" function="internal">
        <lane id=":1270258818_0_0" index="0" disallow="pedestrian bicycle tram rail_urban rail rail_electric rail_fast ship container cable_car subway aircraft wheelchair scooter drone" speed="27.78" length="5.44" shape="857.34,311.51 852.66,314.28"/>
    </edge>
    <edge id=":1270258818_1" function="internal">
        <lane id=":1270258818_1_0" index="0" disallow="pedestrian bicycle tram rail_urban rail rail_electric rail_fast ship container cable_car subway aircraft wheelchair scooter drone" speed="27.78" length="5.57" shape="854.23,317.06 859.02,314.22"/>
    </edge>
    <edge id=":1350494665_0" function="internal">
        <lane id=":1350494665_0_0" index="0" disallow="tram rail_urban rail rail_electric rail_fast ship container cable_car subway aircraft wheelchair scooter drone" speed="6.48" length="9.03" shape="820.68,612.10 818.28,612.74 816.27,612.45 814.63,611.24 813.37,609.10"/>
    </edge>
    <edge id=":1350494665_1" function="internal">
        <lane id=":1350494665_1_0" index="0" disallow="tram rail_urban rail rail_electric rail_fast ship container cable_car subway aircraft wheelchair scooter drone" speed="8.04" length="14.21" shape="820.68,612.10 817.33,614.12 815.42,616.72 814.94,619.89 815.90,623.64"/>
    </edge>
    <edge id=":1350494665_2" function="internal">
        <lane id=":1350494665_2_0" index="0" disallow="tram rail_urban rail rail_electric rail_fast ship container cable_car subway aircraft wheelchair scooter drone" speed="3.65" length="4.67" shape="820.68,612.10 819.89,613.31 819.83,614.20 820.51,614.78 821.93,615.05"/>
    </edge>
    <edge id=":1350494665_3" function="internal">
        <lane id=":1350494665_3_0" index="0" disallow="tram rail_urban rail rail_electric rail_fast ship container cable_car subway aircraft wheelchair scooter drone" speed="6.55" length="9.09" shape="818.85,622.42 818.25,620.03 818.56,618.00 819.79,616.34 821.93,615.05"/>
    </edge>
    <edge id=":1350494665_4" function="internal">
        <lane id=":1350494665_4_0" index="0" disallow="tram rail_urban rail rail_electric rail_fast ship container cable_car subway aircraft wheelchair scooter drone" speed="13.89" length="14.40" shape="818.85,622.42 813.37,609.10"/>
    </edge>
    <edge id=":1350494665_5" function="internal">
        <lane id=":1350494665_5_0" index="0" disallow="tram rail_urban rail rail_electric rail_fast ship container cable_car subway aircraft wheelchair scooter drone" speed="3.65" length="1.44" shape="818.85,622.42 817.66,621.62"/>
    </edge>
    <edge id=":1350494665_9" function="internal">
        <lane id=":1350494665_9_0" index="0" disallow="tram rail_urban rail rail_electric rail_fast ship container cable_car subway aircraft wheelchair scooter drone" speed="3.65" length="3.23" shape="817.66,621.62 816.76,621.56 816.18,622.23 815.90,623.64"/>
    </edge>
    <edge id=":1350494665_6" function="internal">
        <lane id=":1350494665_6_0" index="0" disallow="tram rail_urban rail rail_electric rail_fast ship container cable_car subway aircraft wheelchair scooter drone" speed="13.89" length="14.41" shape="810.41,610.32 815.90,623.64"/>
    </edge>
    <edge id=":1350494665_7" function="internal">