<configuration><input><net-file value="swindonroad.net.xml" /><route-files value="C:\Github\IntelliLightEngineers\generated\swindonroad.trips.xml" /></input><time><begin value="0" /><end value="5000" /></time><report><collision-output value="collisions.xml" /></report></configuration>